/*--------------------------------*- C++ -*----------------------------------*\
| =========                 |                                                 |
| \\      /  F ield         | OpenFOAM Extend Project: Open Source CFD        |
|  \\    /   O peration     | Version:  1.6-ext                               |
|   \\  /    A nd           | Web:      www.extend-project.de                 |
|    \\/     M anipulation  |                                                 |
\*---------------------------------------------------------------------------*/
FoamFile
{
    version     2.0;
    format      ascii;
    class       dictionary;
    object      controlDict;
}
// * * * * * * * * * * * * * * * * * * * * * * * * * * * * * * * * * * * * * //

application     chipAirCoolingSimpleFoam;

startFrom       latestTime;

startTime       0;

stopAt          endTime;

endTime         2000;

deltaT          1;

writeControl    timeStep;

writeInterval   200;

purgeWrite      0;

writeFormat     ascii;

writePrecision  6;

writeCompression uncompressed;

timeFormat      general;

timePrecision   6;

runTimeModifiable yes;

functions
(
    heatFlux
    {
        // Type of functionObject
        type heatFlux;
        outputControl timeStep;
        outputInterval 1;

        lib "libairbusMaterialModels.so";

        K              kappaEff;
    }

    heatFlux
    {
        // Type of functionObject
        type heatFlux;
        outputControl timeStep;
        outputInterval 1;
	    region solid;

        lib "libairbusMaterialModels.so";

        K              k;
    }

	fieldAverage1
	{
			type            fieldAverage;
			functionObjectLibs ( "libfieldFunctionObjects.so" );
			enabled         false;
			outputControl   outputTime;
			resetOnOutput 	false;

			fields
					(
					 U
					 {
					 mean        on;
					 prime2Mean  off;
					 base        time;
					 }

					T 
					 {
					 mean        on;
					 prime2Mean  off;
					 base        time;
					 }
					);
	}

);

// ************************************************************************* //
